<?xml version="1.0" encoding="UTF-8"?>

<!-- generated on 04/18/20 15:28:54 by Eclipse SUMO netedit Version 1.5.0
<configuration xmlns:xsi="http://www.w3.org/2001/XMLSchema-instance" xsi:noNamespaceSchemaLocation="http://sumo.dlr.de/xsd/netconvertConfiguration.xsd">

    <input>
        <sumo-net-file value="C:\Users\demae\PycharmProjects\BachelorProef\t.net.xml"/>
    </input>

    <output>
        <output-file value="C:\Users\demae\PycharmProjects\BachelorProef\grid.net.xml"/>
    </output>

    <processing>
        <geometry.min-radius.fix.railways value="false"/>
        <geometry.max-grade.fix value="false"/>
        <offset.disable-normalization value="true"/>
        <lefthand value="false"/>
    </processing>

    <junctions>
        <no-turnarounds value="true"/>
        <junctions.corner-detail value="5"/>
        <junctions.limit-turn-speed value="5.5"/>
        <rectangular-lane-cut value="false"/>
    </junctions>

    <pedestrian>
        <walkingareas value="false"/>
    </pedestrian>

    <report>
        <aggregate-warnings value="5"/>
    </report>

</configuration>
-->

<net version="0.27" junctionCornerDetail="5" limitTurnSpeed="5.50" xmlns:xsi="http://www.w3.org/2001/XMLSchema-instance" xsi:noNamespaceSchemaLocation="http://sumo.dlr.de/xsd/net_file.xsd">

    <location netOffset="0.00,0.00" convBoundary="0.00,0.00,2000.00,2000.00" origBoundary="0.00,0.00,2000.00,2000.00" projParameter="!"/>

    <edge id=":A1_0" function="internal">
        <lane id=":A1_0_0" index="0" speed="3.65" length="4.67" shape="0.00,501.60 -1.20,500.80 -1.60,500.00 -1.20,499.20 0.00,498.40"/>
    </edge>
    <edge id=":A2_0" function="internal">
        <lane id=":A2_0_0" index="0" speed="3.65" length="4.67" shape="0.00,1001.60 -1.20,1000.80 -1.60,1000.00 -1.20,999.20 0.00,998.40"/>
    </edge>
    <edge id=":A3_0" function="internal">
        <lane id=":A3_0_0" index="0" speed="3.65" length="4.67" shape="0.00,1501.60 -1.20,1500.80 -1.60,1500.00 -1.20,1499.20 0.00,1498.40"/>
    </edge>
    <edge id=":B0_0" function="internal">
        <lane id=":B0_0_0" index="0" speed="3.65" length="4.67" shape="498.40,0.00 499.20,-1.20 500.00,-1.60 500.80,-1.20 501.60,0.00"/>
    </edge>
    <edge id=":B1_0" function="internal">
        <lane id=":B1_0_0" index="0" speed="6.51" length="9.03" shape="498.40,507.20 498.05,504.75 497.00,503.00 495.25,501.95 492.80,501.60"/>
    </edge>
    <edge id=":B1_1" function="internal">
        <lane id=":B1_1_0" index="0" speed="20.00" length="14.40" shape="498.40,507.20 498.40,492.80"/>
    </edge>
    <edge id=":B1_2" function="internal">
        <lane id=":B1_2_0" index="0" speed="8.00" length="5.93" shape="498.40,507.20 498.95,503.35 500.00,501.60"/>
    </edge>
    <edge id=":B1_3" function="internal">
        <lane id=":B1_3_0" index="0" speed="3.65" length="2.34" shape="498.40,507.20 499.20,506.00 500.00,505.60"/>
    </edge>
    <edge id=":B1_16" function="internal">
        <lane id=":B1_16_0" index="0" speed="8.00" length="8.26" shape="500.00,501.60 500.60,500.60 503.35,498.95 507.20,498.40"/>
    </edge>
    <edge id=":B1_17" function="internal">
        <lane id=":B1_17_0" index="0" speed="3.65" length="2.34" shape="500.00,505.60 500.80,506.00 501.60,507.20"/>
    </edge>
    <edge id=":B1_4" function="internal">
        <lane id=":B1_4_0" index="0" speed="6.51" length="9.03" shape="507.20,501.60 504.75,501.95 503.00,503.00 501.95,504.75 501.60,507.20"/>
    </edge>
    <edge id=":B1_5" function="internal">
        <lane id=":B1_5_0" index="0" speed="20.00" length="14.40" shape="507.20,501.60 492.80,501.60"/>
    </edge>
    <edge id=":B1_6" function="internal">
        <lane id=":B1_6_0" index="0" speed="8.00" length="5.93" shape="507.20,501.60 503.35,501.05 501.60,500.00"/>
    </edge>
    <edge id=":B1_7" function="internal">
        <lane id=":B1_7_0" index="0" speed="3.65" length="2.34" shape="507.20,501.60 506.00,500.80 505.60,500.00"/>
    </edge>
    <edge id=":B1_18" function="internal">
        <lane id=":B1_18_0" index="0" speed="8.00" length="8.26" shape="501.60,500.00 500.60,499.40 498.95,496.65 498.40,492.80"/>
    </edge>
    <edge id=":B1_19" function="internal">
        <lane id=":B1_19_0" index="0" speed="3.65" length="2.34" shape="505.60,500.00 506.00,499.20 507.20,498.40"/>
    </edge>
    <edge id=":B1_8" function="internal">
        <lane id=":B1_8_0" index="0" speed="6.51" length="9.03" shape="501.60,492.80 501.95,495.25 503.00,497.00 504.75,498.05 507.20,498.40"/>
    </edge>
    <edge id=":B1_9" function="internal">
        <lane id=":B1_9_0" index="0" speed="16.95" length="14.40" shape="501.60,492.80 501.60,507.20"/>
    </edge>
    <edge id=":B1_10" function="internal">
        <lane id=":B1_10_0" index="0" speed="8.00" length="5.93" shape="501.60,492.80 501.05,496.65 500.00,498.40"/>
    </edge>
    <edge id=":B1_11" function="internal">
        <lane id=":B1_11_0" index="0" speed="3.65" length="2.34" shape="501.60,492.80 500.80,494.00 500.00,494.40"/>
    </edge>
    <edge id=":B1_20" function="internal">
        <lane id=":B1_20_0" index="0" speed="8.00" length="8.26" shape="500.00,498.40 499.40,499.40 496.65,501.05 492.80,501.60"/>
    </edge>
    <edge id=":B1_21" function="internal">
        <lane id=":B1_21_0" index="0" speed="3.65" length="2.34" shape="500.00,494.40 499.20,494.00 498.40,492.80"/>
    </edge>
    <edge id=":B1_12" function="internal">
        <lane id=":B1_12_0" index="0" speed="6.51" length="9.03" shape="492.80,498.40 495.25,498.05 497.00,497.00 498.05,495.25 498.40,492.80"/>
    </edge>
    <edge id=":B1_13" function="internal">
        <lane id=":B1_13_0" index="0" speed="20.00" length="14.40" shape="492.80,498.40 507.20,498.40"/>
    </edge>
    <edge id=":B1_14" function="internal">
        <lane id=":B1_14_0" index="0" speed="8.00" length="5.93" shape="492.80,498.40 496.65,498.95 498.40,500.00"/>
    </edge>
    <edge id=":B1_15" function="internal">
        <lane id=":B1_15_0" index="0" speed="3.65" length="2.34" shape="492.80,498.40 494.00,499.20 494.40,500.00"/>
    </edge>
    <edge id=":B1_22" function="internal">
        <lane id=":B1_22_0" index="0" speed="8.00" length="8.26" shape="498.40,500.00 499.40,500.60 501.05,503.35 501.60,507.20"/>
    </edge>
    <edge id=":B1_23" function="internal">
        <lane id=":B1_23_0" index="0" speed="3.65" length="2.34" shape="494.40,500.00 494.00,500.80 492.80,501.60"/>
    </edge>
    <edge id=":B2_0" function="internal">
        <lane id=":B2_0_0" index="0" speed="6.51" length="9.03" shape="498.40,1007.20 498.05,1004.75 497.00,1003.00 495.25,1001.95 492.80,1001.60"/>
    </edge>
    <edge id=":B2_1" function="internal">
        <lane id=":B2_1_0" index="0" speed="20.00" length="14.40" shape="498.40,1007.20 498.40,992.80"/>
    </edge>
    <edge id=":B2_2" function="internal">
        <lane id=":B2_2_0" index="0" speed="8.00" length="5.93" shape="498.40,1007.20 498.95,1003.35 500.00,1001.60"/>
    </edge>
    <edge id=":B2_3" function="internal">
        <lane id=":B2_3_0" index="0" speed="3.65" length="2.34" shape="498.40,1007.20 499.20,1006.00 500.00,1005.60"/>
    </edge>
    <edge id=":B2_16" function="internal">
        <lane id=":B2_16_0" index="0" speed="8.00" length="8.26" shape="500.00,1001.60 500.60,1000.60 503.35,998.95 507.20,998.40"/>
    </edge>
    <edge id=":B2_17" function="internal">
        <lane id=":B2_17_0" index="0" speed="3.65" length="2.34" shape="500.00,1005.60 500.80,1006.00 501.60,1007.20"/>
    </edge>
    <edge id=":B2_4" function="internal">
        <lane id=":B2_4_0" index="0" speed="6.51" length="9.03" shape="507.20,1001.60 504.75,1001.95 503.00,1003.00 501.95,1004.75 501.60,1007.20"/>
    </edge>
    <edge id=":B2_5" function="internal">
        <lane id=":B2_5_0" index="0" speed="20.00" length="14.40" shape="507.20,1001.60 492.80,1001.60"/>
    </edge>
    <edge id=":B2_6" function="internal">
        <lane id=":B2_6_0" index="0" speed="8.00" length="5.93" shape="507.20,1001.60 503.35,1001.05 501.60,1000.00"/>
    </edge>
    <edge id=":B2_7" function="internal">
        <lane id=":B2_7_0" index="0" speed="3.65" length="2.34" shape="507.20,1001.60 506.00,1000.80 505.60,1000.00"/>
    </edge>
    <edge id=":B2_18" function="internal">
        <lane id=":B2_18_0" index="0" speed="8.00" length="8.26" shape="501.60,1000.00 500.60,999.40 498.95,996.65 498.40,992.80"/>
    </edge>
    <edge id=":B2_19" function="internal">
        <lane id=":B2_19_0" index="0" speed="3.65" length="2.34" shape="505.60,1000.00 506.00,999.20 507.20,998.40"/>
    </edge>
    <edge id=":B2_8" function="internal">
        <lane id=":B2_8_0" index="0" speed="6.51" length="9.03" shape="501.60,992.80 501.95,995.25 503.00,997.00 504.75,998.05 507.20,998.40"/>
    </edge>
    <edge id=":B2_9" function="internal">
        <lane id=":B2_9_0" index="0" speed="16.95" length="14.40" shape="501.60,992.80 501.60,1007.20"/>
    </edge>
    <edge id=":B2_10" function="internal">
        <lane id=":B2_10_0" index="0" speed="8.00" length="5.93" shape="501.60,992.80 501.05,996.65 500.00,998.40"/>
    </edge>
    <edge id=":B2_11" function="internal">
        <lane id=":B2_11_0" index="0" speed="3.65" length="2.34" shape="501.60,992.80 500.80,994.00 500.00,994.40"/>
    </edge>
    <edge id=":B2_20" function="internal">
        <lane id=":B2_20_0" index="0" speed="8.00" length="8.26" shape="500.00,998.40 499.40,999.40 496.65,1001.05 492.80,1001.60"/>
    </edge>
    <edge id=":B2_21" function="internal">
        <lane id=":B2_21_0" index="0" speed="3.65" length="2.34" shape="500.00,994.40 499.20,994.00 498.40,992.80"/>
    </edge>
    <edge id=":B2_12" function="internal">
        <lane id=":B2_12_0" index="0" speed="6.51" length="9.03" shape="492.80,998.40 495.25,998.05 497.00,997.00 498.05,995.25 498.40,992.80"/>
    </edge>
    <edge id=":B2_13" function="internal">
        <lane id=":B2_13_0" index="0" speed="20.00" length="14.40" shape="492.80,998.40 507.20,998.40"/>
    </edge>
    <edge id=":B2_14" function="internal">
        <lane id=":B2_14_0" index="0" speed="8.00" length="5.93" shape="492.80,998.40 496.65,998.95 498.40,1000.00"/>
    </edge>
    <edge id=":B2_15" function="internal">
        <lane id=":B2_15_0" index="0" speed="3.65" length="2.34" shape="492.80,998.40 494.00,999.20 494.40,1000.00"/>
    </edge>
    <edge id=":B2_22" function="internal">
        <lane id=":B2_22_0" index="0" speed="8.00" length="8.26" shape="498.40,1000.00 499.40,1000.60 501.05,1003.35 501.60,1007.20"/>
    </edge>
    <edge id=":B2_23" function="internal">
        <lane id=":B2_23_0" index="0" speed="3.65" length="2.34" shape="494.40,1000.00 494.00,1000.80 492.80,1001.60"/>
    </edge>
    <edge id=":B3_0" function="internal">
        <lane id=":B3_0_0" index="0" speed="6.51" length="9.03" shape="498.40,1507.20 498.05,1504.75 497.00,1503.00 495.25,1501.95 492.80,1501.60"/>
    </edge>
    <edge id=":B3_1" function="internal">
        <lane id=":B3_1_0" index="0" speed="20.00" length="14.40" shape="498.40,1507.20 498.40,1492.80"/>
    </edge>
    <edge id=":B3_2" function="internal">
        <lane id=":B3_2_0" index="0" speed="8.00" length="5.93" shape="498.40,1507.20 498.95,1503.35 500.00,1501.60"/>
    </edge>
    <edge id=":B3_3" function="internal">
        <lane id=":B3_3_0" index="0" speed="3.65" length="2.34" shape="498.40,1507.20 499.20,1506.00 500.00,1505.60"/>
    </edge>
    <edge id=":B3_16" function="internal">
        <lane id=":B3_16_0" index="0" speed="8.00" length="8.26" shape="500.00,1501.60 500.60,1500.60 503.35,1498.95 507.20,1498.40"/>
    </edge>
    <edge id=":B3_17" function="internal">
        <lane id=":B3_17_0" index="0" speed="3.65" length="2.34" shape="500.00,1505.60 500.80,1506.00 501.60,1507.20"/>
    </edge>
    <edge id=":B3_4" function="internal">
        <lane id=":B3_4_0" index="0" speed="6.51" length="9.03" shape="507.20,1501.60 504.75,1501.95 503.00,1503.00 501.95,1504.75 501.60,1507.20"/>
    </edge>
    <edge id=":B3_5" function="internal">
        <lane id=":B3_5_0" index="0" speed="20.00" length="14.40" shape="507.20,1501.60 492.80,1501.60"/>
    </edge>
    <edge id=":B3_6" function="internal">
        <lane id=":B3_6_0" index="0" speed="8.00" length="5.93" shape="507.20,1501.60 503.35,1501.05 501.60,1500.00"/>
    </edge>
    <edge id=":B3_7" function="internal">
        <lane id=":B3_7_0" index="0" speed="3.65" length="2.34" shape="507.20,1501.60 506.00,1500.80 505.60,1500.00"/>
    </edge>
    <edge id=":B3_18" function="internal">
        <lane id=":B3_18_0" index="0" speed="8.00" length="8.26" shape="501.60,1500.00 500.60,1499.40 498.95,1496.65 498.40,1492.80"/>
    </edge>
    <edge id=":B3_19" function="internal">
        <lane id=":B3_19_0" index="0" speed="3.65" length="2.34" shape="505.60,1500.00 506.00,1499.20 507.20,1498.40"/>
    </edge>
    <edge id=":B3_8" function="internal">
        <lane id=":B3_8_0" index="0" speed="6.51" length="9.03" shape="501.60,1492.80 501.95,1495.25 503.00,1497.00 504.75,1498.05 507.20,1498.40"/>
    </edge>
    <edge id=":B3_9" function="internal">
        <lane id=":B3_9_0" index="0" speed="20.00" length="14.40" shape="501.60,1492.80 501.60,1507.20"/>
    </edge>
    <edge id=":B3_10" function="internal">
        <lane id=":B3_10_0" index="0" speed="8.00" length="5.93" shape="501.60,1492.80 501.05,1496.65 500.00,1498.40"/>
    </edge>
    <edge id=":B3_11" function="internal">
        <lane id=":B3_11_0" index="0" speed="3.65" length="2.34" shape="501.60,1492.80 500.80,1494.00 500.00,1494.40"/>
    </edge>
    <edge id=":B3_20" function="internal">
        <lane id=":B3_20_0" index="0" speed="8.00" length="8.26" shape="500.00,1498.40 499.40,1499.40 496.65,1501.05 492.80,1501.60"/>
    </edge>
    <edge id=":B3_21" function="internal">
        <lane id=":B3_21_0" index="0" speed="3.65" length="2.34" shape="500.00,1494.40 499.20,1494.00 498.40,1492.80"/>
    </edge>
    <edge id=":B3_12" function="internal">
        <lane id=":B3_12_0" index="0" speed="6.51" length="9.03" shape="492.80,1498.40 495.25,1498.05 497.00,1497.00 498.05,1495.25 498.40,1492.80"/>
    </edge>
    <edge id=":B3_13" function="internal">
        <lane id=":B3_13_0" index="0" speed="20.00" length="14.40" shape="492.80,1498.40 507.20,1498.40"/>
    </edge>
    <edge id=":B3_14" function="internal">
        <lane id=":B3_14_0" index="0" speed="8.00" length="5.93" shape="492.80,1498.40 496.65,1498.95 498.40,1500.00"/>
    </edge>
    <edge id=":B3_15" function="internal">
        <lane id=":B3_15_0" index="0" speed="3.65" length="2.34" shape="492.80,1498.40 494.00,1499.20 494.40,1500.00"/>
    </edge>
    <edge id=":B3_22" function="internal">
        <lane id=":B3_22_0" index="0" speed="8.00" length="8.26" shape="498.40,1500.00 499.40,1500.60 501.05,1503.35 501.60,1507.20"/>
    </edge>
    <edge id=":B3_23" function="internal">
        <lane id=":B3_23_0" index="0" speed="3.65" length="2.34" shape="494.40,1500.00 494.00,1500.80 492.80,1501.60"/>
    </edge>
    <edge id=":B4_0" function="internal">
        <lane id=":B4_0_0" index="0" speed="3.65" length="4.67" shape="501.60,2000.00 500.80,2001.20 500.00,2001.60 499.20,2001.20 498.40,2000.00"/>
    </edge>
    <edge id=":C0_0" function="internal">
        <lane id=":C0_0_0" index="0" speed="3.65" length="4.67" shape="998.40,0.00 999.20,-1.20 1000.00,-1.60 1000.80,-1.20 1001.60,0.00"/>
    </edge>
    <edge id=":C1_0" function="internal">
        <lane id=":C1_0_0" index="0" speed="6.51" length="9.03" shape="998.40,507.20 998.05,504.75 997.00,503.00 995.25,501.95 992.80,501.60"/>
    </edge>
    <edge id=":C1_1" function="internal">
        <lane id=":C1_1_0" index="0" speed="20.00" length="14.40" shape="998.40,507.20 998.40,492.80"/>
    </edge>
    <edge id=":C1_2" function="internal">
        <lane id=":C1_2_0" index="0" speed="8.00" length="5.93" shape="998.40,507.20 998.95,503.35 1000.00,501.60"/>
    </edge>
    <edge id=":C1_3" function="internal">
        <lane id=":C1_3_0" index="0" speed="3.65" length="2.34" shape="998.40,507.20 999.20,506.00 1000.00,505.60"/>
    </edge>
    <edge id=":C1_16" function="internal">
        <lane id=":C1_16_0" index="0" speed="8.00" length="8.26" shape="1000.00,501.60 1000.60,500.60 1003.35,498.95 1007.20,498.40"/>
    </edge>
    <edge id=":C1_17" function="internal">
        <lane id=":C1_17_0" index="0" speed="3.65" length="2.34" shape="1000.00,505.60 1000.80,506.00 1001.60,507.20"/>
    </edge>
    <edge id=":C1_4" function="internal">
        <lane id=":C1_4_0" index="0" speed="6.51" length="9.03" shape="1007.20,501.60 1004.75,501.95 1003.00,503.00 1001.95,504.75 1001.60,507.20"/>
    </edge>
    <edge id=":C1_5" function="internal">
        <lane id=":C1_5_0" index="0" speed="20.00" length="14.40" shape="1007.20,501.60 992.80,501.60"/>
    </edge>
    <edge id=":C1_6" function="internal">
        <lane id=":C1_6_0" index="0" speed="8.00" length="5.93" shape="1007.20,501.60 1003.35,501.05 1001.60,500.00"/>
    </edge>
    <edge id=":C1_7" function="internal">
        <lane id=":C1_7_0" index="0" speed="3.65" length="2.34" shape="1007.20,501.60 1006.00,500.80 1005.60,500.00"/>
    </edge>
    <edge id=":C1_18" function="internal">
        <lane id=":C1_18_0" index="0" speed="8.00" length="8.26" shape="1001.60,500.00 1000.60,499.40 998.95,496.65 998.40,492.80"/>
    </edge>
    <edge id=":C1_19" function="internal">
        <lane id=":C1_19_0" index="0" speed="3.65" length="2.34" shape="1005.60,500.00 1006.00,499.20 1007.20,498.40"/>
    </edge>
    <edge id=":C1_8" function="internal">
        <lane id=":C1_8_0" index="0" speed="6.51" length="9.03" shape="1001.60,492.80 1001.95,495.25 1003.00,497.00 1004.75,498.05 1007.20,498.40"/>
    </edge>
    <edge id=":C1_9" function="internal">
        <lane id=":C1_9_0" index="0" speed="20.00" length="14.40" shape="1001.60,492.80 1001.60,507.20"/>
    </edge>
    <edge id=":C1_10" function="internal">
        <lane id=":C1_10_0" index="0" speed="8.00" length="5.93" shape="1001.60,492.80 1001.05,496.65 1000.00,498.40"/>
    </edge>
    <edge id=":C1_11" function="internal">
        <lane id=":C1_11_0" index="0" speed="3.65" length="2.34" shape="1001.60,492.80 1000.80,494.00 1000.00,494.40"/>
    </edge>
    <edge id=":C1_20" function="internal">
        <lane id=":C1_20_0" index="0" speed="8.00" length="8.26" shape="1000.00,498.40 999.40,499.40 996.65,501.05 992.80,501.60"/>
    </edge>
    <edge id=":C1_21" function="internal">
        <lane id=":C1_21_0" index="0" speed="3.65" length="2.34" shape="1000.00,494.40 999.20,494.00 998.40,492.80"/>
    </edge>
    <edge id=":C1_12" function="internal">
        <lane id=":C1_12_0" index="0" speed="6.51" length="9.03" shape="992.80,498.40 995.25,498.05 997.00,497.00 998.05,495.25 998.40,492.80"/>
    </edge>
    <edge id=":C1_13" function="internal">
        <lane id=":C1_13_0" index="0" speed="20.00" length="14.40" shape="992.80,498.40 1007.20,498.40"/>
    </edge>
    <edge id=":C1_14" function="internal">
        <lane id=":C1_14_0" index="0" speed="8.00" length="5.93" shape="992.80,498.40 996.65,498.95 998.40,500.00"/>
    </edge>
    <edge id=":C1_15" function="internal">
        <lane id=":C1_15_0" index="0" speed="3.65" length="2.34" shape="992.80,498.40 994.00,499.20 994.40,500.00"/>
    </edge>
    <edge id=":C1_22" function="internal">
        <lane id=":C1_22_0" index="0" speed="8.00" length="8.26" shape="998.40,500.00 999.40,500.60 1001.05,503.35 1001.60,507.20"/>
    </edge>
    <edge id=":C1_23" function="internal">
        <lane id=":C1_23_0" index="0" speed="3.65" length="2.34" shape="994.40,500.00 994.00,500.80 992.80,501.60"/>
    </edge>
    <edge id=":C2_0" function="internal">
        <lane id=":C2_0_0" index="0" speed="6.51" length="9.03" shape="998.40,1007.20 998.05,1004.75 997.00,1003.00 995.25,1001.95 992.80,1001.60"/>
    </edge>
    <edge id=":C2_1" function="internal">
        <lane id=":C2_1_0" index="0" speed="20.00" length="14.40" shape="998.40,1007.20 998.40,992.80"/>
    </edge>
    <edge id=":C2_2" function="internal">
        <lane id=":C2_2_0" index="0" speed="8.00" length="5.93" shape="998.40,1007.20 998.95,1003.35 1000.00,1001.60"/>
    </edge>
    <edge id=":C2_3" function="internal">
        <lane id=":C2_3_0" index="0" speed="3.65" length="2.34" shape="998.40,1007.20 999.20,1006.00 1000.00,1005.60"/>
    </edge>
    <edge id=":C2_16" function="internal">
        <lane id=":C2_16_0" index="0" speed="8.00" length="8.26" shape="1000.00,1001.60 1000.60,1000.60 1003.35,998.95 1007.20,998.40"/>
    </edge>
    <edge id=":C2_17" function="internal">
        <lane id=":C2_17_0" index="0" speed="3.65" length="2.34" shape="1000.00,1005.60 1000.80,1006.00 1001.60,1007.20"/>
    </edge>
    <edge id=":C2_4" function="internal">
        <lane id=":C2_4_0" index="0" speed="6.51" length="9.03" shape="1007.20,1001.60 1004.75,1001.95 1003.00,1003.00 1001.95,1004.75 1001.60,1007.20"/>
    </edge>
    <edge id=":C2_5" function="internal">
        <lane id=":C2_5_0" index="0" speed="20.00" length="14.40" shape="1007.20,1001.60 992.80,1001.60"/>
    </edge>
    <edge id=":C2_6" function="internal">
        <lane id=":C2_6_0" index="0" speed="8.00" length="5.93" shape="1007.20,1001.60 1003.35,1001.05 1001.60,1000.00"/>
    </edge>
    <edge id=":C2_7" function="internal">
        <lane id=":C2_7_0" index="0" speed="3.65" length="2.34" shape="1007.20,1001.60 1006.00,1000.80 1005.60,1000.00"/>
    </edge>
    <edge id=":C2_18" function="internal">
        <lane id=":C2_18_0" index="0" speed="8.00" length="8.26" shape="1001.60,1000.00 1000.60,999.40 998.95,996.65 998.40,992.80"/>
    </edge>
    <edge id=":C2_19" function="internal">
        <lane id=":C2_19_0" index="0" speed="3.65" length="2.34" shape="1005.60,1000.00 1006.00,999.20 1007.20,998.40"/>
    </edge>
    <edge id=":C2_8" function="internal">
        <lane id=":C2_8_0" index="0" speed="6.51" length="9.03" shape="1001.60,992.80 1001.95,995.25 1003.00,997.00 1004.75,998.05 1007.20,998.40"/>
    </edge>
    <edge id=":C2_9" function="internal">
        <lane id=":C2_9_0" index="0" speed="20.00" length="14.40" shape="1001.60,992.80 1001.60,1007.20"/>
    </edge>
    <edge id=":C2_10" function="internal">
        <lane id=":C2_10_0" index="0" speed="8.00" length="5.93" shape="1001.60,992.80 1001.05,996.65 1000.00,998.40"/>
    </edge>
    <edge id=":C2_11" function="internal">
        <lane id=":C2_11_0" index="0" speed="3.65" length="2.34" shape="1001.60,992.80 1000.80,994.00 1000.00,994.40"/>
    </edge>
    <edge id=":C2_20" function="internal">
        <lane id=":C2_20_0" index="0" speed="8.00" length="8.26" shape="1000.00,998.40 999.40,999.40 996.65,1001.05 992.80,1001.60"/>
    </edge>
    <edge id=":C2_21" function="internal">
        <lane id=":C2_21_0" index="0" speed="3.65" length="2.34" shape="1000.00,994.40 999.20,994.00 998.40,992.80"/>
    </edge>
    <edge id=":C2_12" function="internal">
        <lane id=":C2_12_0" index="0" speed="6.51" length="9.03" shape="992.80,998.40 995.25,998.05 997.00,997.00 998.05,995.25 998.40,992.80"/>
    </edge>
    <edge id=":C2_13" function="internal">
        <lane id=":C2_13_0" index="0" speed="20.00" length="14.40" shape="992.80,998.40 1007.20,998.40"/>
    </edge>
    <edge id=":C2_14" function="internal">
        <lane id=":C2_14_0" index="0" speed="8.00" length="5.93" shape="992.80,998.40 996.65,998.95 998.40,1000.00"/>
    </edge>
    <edge id=":C2_15" function="internal">
        <lane id=":C2_15_0" index="0" speed="3.65" length="2.34" shape="992.80,998.40 994.00,999.20 994.40,1000.00"/>
    </edge>
    <edge id=":C2_22" function="internal">
        <lane id=":C2_22_0" index="0" speed="8.00" length="8.26" shape="998.40,1000.00 999.40,1000.60 1001.05,1003.35 1001.60,1007.20"/>
    </edge>
    <edge id=":C2_23" function="internal">
        <lane id=":C2_23_0" index="0" speed="3.65" length="2.34" shape="994.40,1000.00 994.00,1000.80 992.80,1001.60"/>
    </edge>
    <edge id=":C3_0" function="internal">
        <lane id=":C3_0_0" index="0" speed="6.51" length="9.03" shape="998.40,1507.20 998.05,1504.75 997.00,1503.00 995.25,1501.95 992.80,1501.60"/>
    </edge>
    <edge id=":C3_1" function="internal">
        <lane id=":C3_1_0" index="0" speed="20.00" length="14.40" shape="998.40,1507.20 998.40,1492.80"/>
    </edge>
    <edge id=":C3_2" function="internal">
        <lane id=":C3_2_0" index="0" speed="8.00" length="5.93" shape="998.40,1507.20 998.95,1503.35 1000.00,1501.60"/>
    </edge>
    <edge id=":C3_3" function="internal">
        <lane id=":C3_3_0" index="0" speed="3.65" length="2.34" shape="998.40,1507.20 999.20,1506.00 1000.00,1505.60"/>
    </edge>
    <edge id=":C3_16" function="internal">
        <lane id=":C3_16_0" index="0" speed="8.00" length="8.26" shape="1000.00,1501.60 1000.60,1500.60 1003.35,1498.95 1007.20,1498.40"/>
    </edge>
    <edge id=":C3_17" function="internal">
        <lane id=":C3_17_0" index="0" speed="3.65" length="2.34" shape="1000.00,1505.60 1000.80,1506.00 1001.60,1507.20"/>
    </edge>
    <edge id=":C3_4" function="internal">
        <lane id=":C3_4_0" index="0" speed="6.51" length="9.03" shape="1007.20,1501.60 1004.75,1501.95 1003.00,1503.00 1001.95,1504.75 1001.60,1507.20"/>
    </edge>
    <edge id=":C3_5" function="internal">
        <lane id=":C3_5_0" index="0" speed="20.00" length="14.40" shape="1007.20,1501.60 992.80,1501.60"/>
    </edge>
    <edge id=":C3_6" function="internal">
        <lane id=":C3_6_0" index="0" speed="8.00" length="5.93" shape="1007.20,1501.60 1003.35,1501.05 1001.60,1500.00"/>
    </edge>
    <edge id=":C3_7" function="internal">
        <lane id=":C3_7_0" index="0" speed="3.65" length="2.34" shape="1007.20,1501.60 1006.00,1500.80 1005.60,1500.00"/>
    </edge>
    <edge id=":C3_18" function="internal">
        <lane id=":C3_18_0" index="0" speed="8.00" length="8.26" shape="1001.60,1500.00 1000.60,1499.40 998.95,1496.65 998.40,1492.80"/>
    </edge>
    <edge id=":C3_19" function="internal">
        <lane id=":C3_19_0" index="0" speed="3.65" length="2.34" shape="1005.60,1500.00 1006.00,1499.20 1007.20,1498.40"/>
    </edge>
    <edge id=":C3_8" function="internal">
        <lane id=":C3_8_0" index="0" speed="6.51" length="9.03" shape="1001.60,1492.80 1001.95,1495.25 1003.00,1497.00 1004.75,1498.05 1007.20,1498.40"/>
    </edge>
    <edge id=":C3_9" function="internal">
        <lane id=":C3_9_0" index="0" speed="20.00" length="14.40" shape="1001.60,1492.80 1001.60,1507.20"/>
    </edge>
    <edge id=":C3_10" function="internal">
        <lane id=":C3_10_0" index="0" speed="8.00" length="5.93" shape="1001.60,1492.80 1001.05,1496.65 1000.00,1498.40"/>
    </edge>
    <edge id=":C3_11" function="internal">
        <lane id=":C3_11_0" index="0" speed="3.65" length="2.34" shape="1001.60,1492.80 1000.80,1494.00 1000.00,1494.40"/>
    </edge>
    <edge id=":C3_20" function="internal">
        <lane id=":C3_20_0" index="0" speed="8.00" length="8.26" shape="1000.00,1498.40 999.40,1499.40 996.65,1501.05 992.80,1501.60"/>
    </edge>
    <edge id=":C3_21" function="internal">
        <lane id=":C3_21_0" index="0" speed="3.65" length="2.34" shape="1000.00,1494.40 999.20,1494.00 998.40,1492.80"/>
    </edge>
    <edge id=":C3_12" function="internal">
        <lane id=":C3_12_0" index="0" speed="6.51" length="9.03" shape="992.80,1498.40 995.25,1498.05 997.00,1497.00 998.05,1495.25 998.40,1492.80"/>
    </edge>
    <edge id=":C3_13" function="internal">
        <lane id=":C3_13_0" index="0" speed="20.00" length="14.40" shape="992.80,1498.40 1007.20,1498.40"/>
    </edge>
    <edge id=":C3_14" function="internal">
        <lane id=":C3_14_0" index="0" speed="8.00" length="5.93" shape="992.80,1498.40 996.65,1498.95 998.40,1500.00"/>
    </edge>
    <edge id=":C3_15" function="internal">
        <lane id=":C3_15_0" index="0" speed="3.65" length="2.34" shape="992.80,1498.40 994.00,1499.20 994.40,1500.00"/>
    </edge>
    <edge id=":C3_22" function="internal">
        <lane id=":C3_22_0" index="0" speed="8.00" length="8.26" shape="998.40,1500.00 999.40,1500.60 1001.05,1503.35 1001.60,1507.20"/>
    </edge>
    <edge id=":C3_23" function="internal">
        <lane id=":C3_23_0" index="0" speed="3.65" length="2.34" shape="994.40,1500.00 994.00,1500.80 992.80,1501.60"/>
    </edge>
    <edge id=":C4_0" function="internal">
        <lane id=":C4_0_0" index="0" speed="3.65" length="4.67" shape="1001.60,2000.00 1000.80,2001.20 1000.00,2001.60 999.20,2001.20 998.40,2000.00"/>
    </edge>
    <edge id=":D0_0" function="internal">
        <lane id=":D0_0_0" index="0" speed="3.65" length="4.67" shape="1498.40,0.00 1499.20,-1.20 1500.00,-1.60 1500.80,-1.20 1501.60,0.00"/>
    </edge>
    <edge id=":D1_0" function="internal">
        <lane id=":D1_0_0" index="0" speed="6.51" length="9.03" shape="1498.40,507.20 1498.05,504.75 1497.00,503.00 1495.25,501.95 1492.80,501.60"/>
    </edge>
    <edge id=":D1_1" function="internal">
        <lane id=":D1_1_0" index="0" speed="20.00" length="14.40" shape="1498.40,507.20 1498.40,492.80"/>
    </edge>
    <edge id=":D1_2" function="internal">
        <lane id=":D1_2_0" index="0" speed="8.00" length="5.93" shape="1498.40,507.20 1498.95,503.35 1500.00,501.60"/>
    </edge>
    <edge id=":D1_3" function="internal">
        <lane id=":D1_3_0" index="0" speed="3.65" length="2.34" shape="1498.40,507.20 1499.20,506.00 1500.00,505.60"/>
    </edge>
    <edge id=":D1_16" function="internal">
        <lane id=":D1_16_0" index="0" speed="8.00" length="8.26" shape="1500.00,501.60 1500.60,500.60 1503.35,498.95 1507.20,498.40"/>
    </edge>
    <edge id=":D1_17" function="internal">
        <lane id=":D1_17_0" index="0" speed="3.65" length="2.34" shape="1500.00,505.60 1500.80,506.00 1501.60,507.20"/>
    </edge>
    <edge id=":D1_4" function="internal">