<?xml version="1.0" encoding="UTF-8"?>

<!-- generated on 04/18/20 13:02:18 by Eclipse SUMO GUI Version 1.5.0-->

<configuration xmlns:xsi="http://www.w3.org/2001/XMLSchema-instance" xsi:noNamespaceSchemaLocation="http://sumo.dlr.de/xsd/sumoConfiguration.xsd">

    <input>
        <net-file value="grid.net.xml"/>
        <route-files value="trips.xml"/>
        <!--additional-files value="grid.det.xml"/-->
    </input>

	<time>
		<begin value="0"/>
	</time>
</configuration>
